[Format]      =  4.0
[Frequency]   =  0
[Precision]   =  1e-008
[MinAngle]    =  30
[DoSmartMesh] =  1
[Depth]       =  1
[LengthUnits] =  millimeters
[ProblemType] =  planar
[Coordinates] =  cartesian
[ACSolver]    =  0
[PrevType]    =  0
[PrevSoln]    =  ""
[Comment]     =  "Levitation Coil.\nData Sheet:\nElectrical Inductance = 6.7mH\nInner Diameter= 9mm (0,35")\nWire Diameter = 0.45mm (0.01")\nHeight = 22mm (0.86")\nOutside Diameter = 21 mm (0.82")\nCore= We don't know!! "
[PointProps]   = 0
[BdryProps]   = 1
  <BeginBdry>
    <BdryName> = "Edge"
    <BdryType> = 0
    <A_0> = 0
    <A_1> = 0
    <A_2> = 0
    <Phi> = 0
    <c0> = 0
    <c0i> = 0
    <c1> = 0
    <c1i> = 0
    <Mu_ssd> = 0
    <Sigma_ssd> = 0
    <innerangle> = 0
    <outerangle> = 0
  <EndBdry>
[BlockProps]  = 15
  <BeginBlock>
    <BlockName> = "0.5 mm"
    <Mu_x> = 1
    <Mu_y> = 1
    <H_c> = 0
    <H_cAngle> = 0
    <J_re> = 0
    <J_im> = 0
    <Sigma> = 58
    <d_lam> = 0
    <Phi_h> = 0
    <Phi_hx> = 0
    <Phi_hy> = 0
    <LamType> = 3
    <LamFill> = 1
    <NStrands> = 1
    <WireD> = 0.5
    <BHPoints> = 0
  <EndBlock>
  <BeginBlock>
    <BlockName> = "Air"
    <Mu_x> = 1
    <Mu_y> = 1
    <H_c> = 0
    <H_cAngle> = 0
    <J_re> = 0
    <J_im> = 0
    <Sigma> = 0
    <d_lam> = 0
    <Phi_h> = 0
    <Phi_hx> = 0
    <Phi_hy> = 0
    <LamType> = 0
    <LamFill> = 1
    <NStrands> = 0
    <WireD> = 0
    <BHPoints> = 0
  <EndBlock>
  <BeginBlock>
    <BlockName> = "Mumetal"
    <Mu_x> = 1
    <Mu_y> = 1
    <H_c> = 0
    <H_cAngle> = 0
    <J_re> = 0
    <J_im> = 0
    <Sigma> = 1.74
    <d_lam> = 0
    <Phi_h> = 0
    <Phi_hx> = 0
    <Phi_hy> = 0
    <LamType> = 0
    <LamFill> = 1
    <NStrands> = 0
    <WireD> = 0
    <BHPoints> = 27
      0	0
      0.079966858795000512	0.860246172839506
      0.081044746616295307	0.86922098765432065
      0.093001903409685144	0.97434444444444424
      0.09407978038038875	0.98450901234567878
      0.10179298471178473	1.0586913580246911
      0.11568200065910944	1.1990987654320986
      0.2226534509330822	2.3531901234567894
      0.23852219194772517	2.5302469135802466
      0.39193101337971092	5.227392592592591
      0.47972626545915664	10.585790123456787
      0.55605040558227847	32.15374074074073
      0.56130482779669588	35.672827160493817
      0.56267995010401561	36.801716049382705
      0.59075471532157364	65.154703703703674
      0.59626410190450307	73.8032345679012
      0.60773381317835806	94.695888888888874
      0.62329794744825984	149.56382716049382
      0.63033195674187881	206.39543209876538
      0.63313084141938702	233.80209876543205
      0.64463535651486892	449.89641975308632
      0.66396464451248827	4072.1679012345671
      0.68133287065863002	17264.209876543202
      0.68156519359361811	17444.469135802465
      0.74685455816660673	66655.654320987625
      0.91052413286942624	196427.40740740736
      1.0703815584096044	323420
  <EndBlock>
  <BeginBlock>
    <BlockName> = "1020 Steel"
    <Mu_x> = 760
    <Mu_y> = 760
    <H_c> = 0
    <H_cAngle> = 0
    <J_re> = 0
    <J_im> = 0
    <Sigma> = 5.7999999999999998
    <d_lam> = 0
    <Phi_h> = 20
    <Phi_hx> = 0
    <Phi_hy> = 0
    <LamType> = 0
    <LamFill> = 1
    <NStrands> = 0
    <WireD> = 0
    <BHPoints> = 38
      0	0
      0.16625200000000001	79.577472
      0.20872499999999999	100.182101
      0.26163500000000001	126.121793
      0.32714599999999999	158.77793
      0.407495	199.88957099999999
      0.50460400000000005	251.646061
      0.61936599999999997	316.80362000000002
      0.750502	398.83212800000001
      0.89319499999999996	502.09990099999999
      1.0382579999999999	632.10632499999997
      1.173276	795.77471500000001
      1.2867310000000001	1001.821011
      1.3735329999999999	1261.2179289999999
      1.4376580000000001	1587.779301
      1.4891890000000001	1998.89571
      1.5383439999999999	2516.4606050000002
      1.591321	3168.036204
      1.6497230000000001	3988.3212819999999
      1.711927	5020.9990129999996
      1.7747120000000001	6321.0632500000002
      1.8349759999999999	7957.747155
      1.8914420000000001	10018.210114
      1.945262	12612.179292999999
      1.998705	15877.793009999999
      2.0528520000000001	19988.957103000001
      2.1061839999999998	25164.606051999999
      2.1551490000000002	31680.362036999999
      2.1963750000000002	39883.212823000002
      2.2290079999999999	50209.990126999997
      2.2554500000000002	63210.632496999999
      2.2800530000000001	79577.471546000001
      2.3071359999999999	100182.101136
      2.3399749999999999	126121.79292599999
      2.3810440000000002	158777.930096
      2.4327079999999999	199889.57102999999
      2.4977480000000001	251646.06052200001
      2.5796269999999999	316803.62037000002
  <EndBlock>
  <BeginBlock>
    <BlockName> = "Pure Iron"
    <Mu_x> = 14872
    <Mu_y> = 14872
    <H_c> = 0
    <H_cAngle> = 0
    <J_re> = 0
    <J_im> = 0
    <Sigma> = 10.44
    <d_lam> = 0
    <Phi_h> = 0
    <Phi_hx> = 0
    <Phi_hy> = 0
    <LamType> = 0
    <LamFill> = 1
    <NStrands> = 0
    <WireD> = 0
    <BHPoints> = 21
      0	0
      0.22706499999999999	13.898400000000001
      0.45412999999999998	27.796700000000001
      0.68119499999999999	42.397399999999998
      0.90825999999999996	61.415700000000001
      1.13533	82.382400000000004
      1.36239	144.66900000000001
      1.58935	897.75999999999999
      1.81236	4581.7399999999998
      2.01004	17736.200000000001
      2.1331600000000002	41339.300000000003
      2.1999900000000001	68321.800000000003
      2.2547899999999998	95685.5
      2.2999299999999998	123355
      2.3425099999999999	151083
      2.3787600000000002	178954
      2.4150100000000001	206825
      2.45126	234696
      2.4874999999999998	262568
      2.5237500000000002	290439
      2.5600000000000001	318310
  <EndBlock>
  <BeginBlock>
    <BlockName> = "Aluminum, 1100"
    <Mu_x> = 1
    <Mu_y> = 1
    <H_c> = 0
    <H_cAngle> = 0
    <J_re> = 0
    <J_im> = 0
    <Sigma> = 34.450000000000003
    <d_lam> = 0
    <Phi_h> = 0
    <Phi_hx> = 0
    <Phi_hy> = 0
    <LamType> = 0
    <LamFill> = 1
    <NStrands> = 0
    <WireD> = 0
    <BHPoints> = 0
  <EndBlock>
  <BeginBlock>
    <BlockName> = "Carbon steel forgings, annealed"
    <Mu_x> = 1
    <Mu_y> = 1
    <H_c> = 0
    <H_cAngle> = 0
    <J_re> = 0
    <J_im> = 0
    <Sigma> = 8.4100000000000001
    <d_lam> = 0
    <Phi_h> = 0
    <Phi_hx> = 0
    <Phi_hy> = 0
    <LamType> = 0
    <LamFill> = 1
    <NStrands> = 0
    <WireD> = 0
    <BHPoints> = 29
      0	0
      0.22750086321702601	260.63999999999993
      0.25470545979310849	280.21333333333331
      0.28326856610354773	301.25333333333333
      0.32904979636553344	334.06333333333333
      0.65254151197752852	542.32999999999993
      0.66749236607661877	553.62
      0.98113689796108794	862.2733333333332
      1.1422284706723329	1163.2666666666667
      1.2786394193015127	1569.8666666666668
      1.4093569171756908	2140.833333333333
      1.6283110950732884	4703.8999999999996
      1.7078750346842446	6691.1666666666661
      1.7267353325576187	7269.6666666666661
      1.8315256093435892	11957
      1.8820380337618272	15335.666666666666
      1.8901210956394068	15985.333333333332
      1.8941754023883211	16320.333333333332
      1.9547466996125868	22982
      2.0110621023626405	35912.333333333328
      2.0199377480484135	39023
      2.024817901264111	40678.333333333328
      2.0648044125044942	59739.666666666664
      2.0852709953440494	71278.333333333328
      2.086206771075799	72023
      2.0904381513635188	74302.666666666657
      2.0989149354262007	79907.666666666657
      2.1458546190022632	114953.33333333333
      2.4130442131136016	324950
  <EndBlock>
  <BeginBlock>
    <BlockName> = "M-27"
    <Mu_x> = 1
    <Mu_y> = 1
    <H_c> = 0
    <H_cAngle> = 0
    <J_re> = 0
    <J_im> = 0
    <Sigma> = 2.0299999999999998
    <d_lam> = 0
    <Phi_h> = 0
    <Phi_hx> = 0
    <Phi_hy> = 0
    <LamType> = 0
    <LamFill> = 1
    <NStrands> = 0
    <WireD> = 0
    <BHPoints> = 30
      0	0
      0.038130201690622492	24.298999999999996
      0.086404146886738822	38.579333333333331
      0.097273491812906593	39.384333333333331
      0.10859385810190443	40.206333333333333
      0.11447771545289238	40.623333333333335
      0.17787385370605846	45.507999999999996
      0.18964838000684214	46.457333333333338
      0.1950823194581181	46.939666666666668
      0.25394873291480063	52.043333333333329
      0.33998222992868687	60.13133333333333
      0.65194475295724141	96.62266666666666
      0.83626894647532968	134.44333333333333
      1.0429529830435345	227.84333333333331
      1.0796908664621463	257.99000000000001
      1.295266662811603	742.71999999999991
      1.4631832646660787	2161.8000000000002
      1.5341330143926522	3342
      1.6529901957958524	6225.7666666666664
      1.6947934982891031	7740.3666666666659
      1.7390524951276174	9723.7000000000007
      1.7594211728903348	10786.333333333332
      1.8478034790283238	16846.666666666664
      1.9536259611096132	32727
      1.9840482550598542	42426.666666666664
      2.0131204838062411	55004.333333333328
      2.0206009376408058	59153.333333333328
      2.0654168165912949	87787.333333333328
      2.1183636442000422	127613.33333333333
      2.3628481072582348	321770
  <EndBlock>
  <BeginBlock>
    <BlockName> = "ur=2.61"
    <Mu_x> = 2.6099999999999999
    <Mu_y> = 2.6099999999999999
    <H_c> = 0
    <H_cAngle> = 0
    <J_re> = 0
    <J_im> = 0
    <Sigma> = 5
    <d_lam> = 0
    <Phi_h> = 0
    <Phi_hx> = 0
    <Phi_hy> = 0
    <LamType> = 0
    <LamFill> = 1
    <NStrands> = 0
    <WireD> = 0
    <BHPoints> = 0
  <EndBlock>
  <BeginBlock>
    <BlockName> = "N35"
    <Mu_x> = 1.05
    <Mu_y> = 1.05
    <H_c> = 905659
    <H_cAngle> = 0
    <J_re> = 0
    <J_im> = 0
    <Sigma> = 0.66700000000000004
    <d_lam> = 0
    <Phi_h> = 0
    <Phi_hx> = 0
    <Phi_hy> = 0
    <LamType> = 0
    <LamFill> = 1
    <NStrands> = 0
    <WireD> = 0
    <BHPoints> = 0
  <EndBlock>
  <BeginBlock>
    <BlockName> = "N42"
    <Mu_x> = 1.05
    <Mu_y> = 1.05
    <H_c> = 994529
    <H_cAngle> = 0
    <J_re> = 0
    <J_im> = 0
    <Sigma> = 0.66700000000000004
    <d_lam> = 0
    <Phi_h> = 0
    <Phi_hx> = 0
    <Phi_hy> = 0
    <LamType> = 0
    <LamFill> = 1
    <NStrands> = 0
    <WireD> = 0
    <BHPoints> = 0
  <EndBlock>
  <BeginBlock>
    <BlockName> = "test"
    <Mu_x> = 1
    <Mu_y> = 1
    <H_c> = 0
    <H_cAngle> = 0
    <J_re> = 0
    <J_im> = 0
    <Sigma> = 0
    <d_lam> = 0
    <Phi_h> = 0
    <Phi_hx> = 0
    <Phi_hy> = 0
    <LamType> = 0
    <LamFill> = 1
    <NStrands> = 0
    <WireD> = 0
    <BHPoints> = 0
  <EndBlock>
  <BeginBlock>
    <BlockName> = "AISI 410"
    <Mu_x> = 200
    <Mu_y> = 200
    <H_c> = 0
    <H_cAngle> = 0
    <J_re> = 0
    <J_im> = 0
    <Sigma> = 1.6499999999999999
    <d_lam> = 0
    <Phi_h> = 0
    <Phi_hx> = 0
    <Phi_hy> = 0
    <LamType> = 0
    <LamFill> = 1
    <NStrands> = 0
    <WireD> = 0
    <BHPoints> = 13
      0	0
      0.0030000000000000001	10
      0.029999999999999999	100
      0.20000000000000001	500
      0.40000000000000002	1000
      0.59999999999999998	2000
      0.80000000000000004	5000
      1	10000
      1.2	20000
      1.3	50000
      1.3999999999999999	100000
      1.5	200000
      1.6000000000000001	1000000
  <EndBlock>
  <BeginBlock>
    <BlockName> = "AISI304CUST"
    <Mu_x> = 100
    <Mu_y> = 100
    <H_c> = 0
    <H_cAngle> = 0
    <J_re> = 0
    <J_im> = 0
    <Sigma> = 1.5
    <d_lam> = 0
    <Phi_h> = 0
    <Phi_hx> = 0
    <Phi_hy> = 0
    <LamType> = 0
    <LamFill> = 1
    <NStrands> = 0
    <WireD> = 0
    <BHPoints> = 14
      0	0
      0.001	10
      0.01	100
      0.10000000000000001	500
      0.20000000000000001	1000
      0.40000000000000002	2000
      0.59999999999999998	5000
      0.80000000000000004	10000
      1	20000
      1.1000000000000001	50000
      1.2	100000
      1.3	200000
      1.3999999999999999	500000
      1.5	1000000
  <EndBlock>
  <BeginBlock>
    <BlockName> = "ur=PC-40"
    <Mu_x> = 2300
    <Mu_y> = 2300
    <H_c> = 0
    <H_cAngle> = 0
    <J_re> = 0
    <J_im> = 0
    <Sigma> = 5
    <d_lam> = 0
    <Phi_h> = 0
    <Phi_hx> = 0
    <Phi_hy> = 0
    <LamType> = 0
    <LamFill> = 1
    <NStrands> = 0
    <WireD> = 0
    <BHPoints> = 16
      0	0
      0.0023	1
      0.0045999999999999999	2
      0.0115	5
      0.023	10
      0.045999999999999999	20
      0.115	50
      0.22	100
      0.28000000000000003	150
      0.32000000000000001	200
      0.35999999999999999	300
      0.38	400
      0.39000000000000001	500
      0.40999999999999998	1000
      0.41999999999999998	2000
      0.42999999999999999	5000
  <EndBlock>
[CircuitProps]  = 1
  <BeginCircuit>
    <CircuitName> = "I"
    <TotalAmps_re> = 1.5
    <TotalAmps_im> = 0
    <CircuitType> = 1
  <EndCircuit>
[NumPoints] = 36
-4.5	-22	0	0
-2	-22	0	0
4.5	-22	0	0
4.5	0	0	0
2	0	0	0
-4.5	0	0	0
2	-22	0	0
-2	0	0	0
-10.5	-22	0	0
10.5	-22	0	0
10.5	0	0	0
-10.5	0	0	0
-5	11	0	0
-10	11	0	0
-10	7	0	0
-5	7	0	0
-4	10	0	0
4	10	0	0
4	7	0	0
-4	7	0	0
5	11	0	0
10	11	0	0
10	7	0	0
5	7	0	0
-40.100000000000001	-30	0	0
-40.100000000000001	29.800000000000001	0	0
40	29.800000000000001	0	0
40	-30	0	0
-20.600000000000001	-25.899999999999999	0	0
-20.199999999999999	0.10000000000000001	0	0
19.399999999999999	-0.10000000000000001	0	0
20	-26.199999999999999	0	0
-11.800000000000001	0	0	0
-11.699999999999999	-22	0	0
11.699999999999999	0	0	0
11.9	-22	0	0
[NumSegments] = 36
2	3	-1	0	0	0
3	4	-1	0	0	0
5	0	-1	0	0	0
4	7	-1	0	0	0
7	5	-1	0	0	0
8	0	-1	0	0	0
9	10	-1	0	0	0
10	3	-1	0	0	0
5	11	-1	0	0	0
11	8	-1	0	0	0
12	13	-1	0	0	0
13	14	-1	0	0	0
15	14	-1	0	0	0
15	12	-1	0	0	0
16	17	-1	0	0	0
17	18	-1	0	0	0
18	19	-1	0	0	0
19	16	-1	0	0	0
20	21	-1	0	0	0
21	22	-1	0	0	0
22	23	-1	0	0	0
20	23	-1	0	0	0
25	26	-1	0	0	0
26	27	-1	0	0	0
27	24	-1	0	0	0
24	25	-1	0	0	0
30	31	-1	0	0	0
31	28	-1	0	0	0
29	28	-1	0	0	0
29	32	-1	0	0	0
32	33	-1	0	0	0
33	8	-1	0	0	0
2	9	-1	0	0	0
9	35	-1	0	0	0
35	34	-1	0	0	0
34	30	-1	0	0	0
[NumArcSegments] = 0
[NumHoles] = 0
[NumBlockLabels] = 7
-5.4000000000000004	22.600000000000001	2	-1	0	0	0	1	0
-9.4000000000000004	8.5999999999999996	14	-1	0	0	0	1	0
-3.2999999999999998	8.4000000000000004	10	-1	0	-90	0	1	0
5.5999999999999996	8.4000000000000004	14	-1	0	0	0	1	0
-9.5999999999999996	-2	1	-1	1	0	0	1000	0
6.0999999999999996	-2.7000000000000002	1	-1	1	0	0	-1000	0
-1.2	-9.3000000000000007	15	-1	0	0	0	1	0
